22
Coordinates from ORCA-job Et3N_DFT
  C   1.70177315618880      0.64208799873105      0.69614878287201
  C   2.53495184065406     -0.63664456880539      0.78345620228897
  N   2.74929410255927     -1.29133362259225     -0.51013389717987
  C   1.56446171386189     -2.02143446588356     -0.96958596865089
  C   1.50198007402058     -2.20014380262823     -2.48639198087545
  C   3.95766224927625     -2.12067607296541     -0.52207658003457
  C   5.25257001041471     -1.31765172123799     -0.64792266433977
  H   2.18223547725622      1.37223458112804      0.02435314433993
  H   1.60075753052558      1.10217720357640      1.69295503824861
  H   0.68458905947421      0.45225571113819      0.31699493859619
  H   3.51957846720825     -0.37728890034984      1.20215355996274
  H   2.07113797366269     -1.33924126246334      1.51443896094599
  H   1.48830482763830     -3.01479894609844     -0.46912010114948
  H   0.67291144362936     -1.45856491807979     -0.65283722093971
  H   2.34582659237383     -2.79476310722873     -2.87222885684818
  H   1.52020090063448     -1.22069256296418     -2.99195406350532
  H   0.57398460380179     -2.72179587375135     -2.77317262175445
  H   3.89403225932098     -2.80635004342464     -1.38113082126383
  H   4.00351906657766     -2.77186478635607      0.38172190093714
  H   5.24255442281026     -0.71004693204131     -1.56770483444334
  H   6.12149871283209     -1.99499473432992     -0.68891360315270
  H   5.40637551527874     -0.63651917337321      0.20472068594599
