6
Coordinates from ORCA-job CaSO4_DFT
  O   1.44548762577288     -0.04686870449280      0.90770989560875
  S   2.88363647774219     -0.12775756332643      0.43966646403263
  O   3.78963193299933     -0.19757815324067      1.66634091636246
  O   3.10813124426556     -1.37549581853787     -0.39454800744929
  O   3.24604225627870      1.11372976348265     -0.35496366893331
  Ca  -0.18929953705872     -0.08925952388489     -2.79234559962123
