10
Coordinates from ORCA-job Pyrimidine_DFT
  C   -0.75637398813548      1.16174912941106      0.00561452400123
  C   0.63941471936638      1.19461037225064      0.01217576380219
  N   1.37588145484685      0.07616838541763      0.01509687115681
  C   0.70367042845064     -1.07842943266411      0.01134754023473
  N   -0.62403973680726     -1.22724879096817      0.00510988419814
  C   -1.34998431389039     -0.10197088537717      0.00226022700235
  H   -1.35241246843824      2.07662990474608      0.00322241998111
  H   1.17957296468705      2.14890578214222      0.01515488561219
  H   1.30293217008428     -1.99820688299988      0.01377099711790
  H   -2.44116123016383     -0.21102758195830     -0.00288311310665
